!BASED ON  ARAMCO 1.3
!METCALFE/MEHL AROMATICS 5.0
!PROPYL/BUTYLBENZENE 1.4



THERMO
   300.000  1000.000  5000.000 

C6H5CH2CH2OO  3/11 THERMC   8H   9O   2    0G   300.000  5000.000 1392.000    31
 2.32195676E+01 2.60543894E-02-9.06848696E-06 1.42450939E-09-8.33254784E-14    2
-9.30560896E+02-9.41996431E+01-2.97717571E+00 9.09238597E-02-7.22332479E-05    3
 3.00778320E-08-5.14215828E-12 7.87040761E+03 4.53100220E+01                   4
C6H5CHOOCH3   3/11 THERMC   8H   9O   2    0G   300.000  5000.000 1391.000    31
 2.39389417E+01 2.55802179E-02-8.93645471E-06 1.40728440E-09-8.24626131E-14    2
-2.90483393E+03-9.84083931E+01-4.15080808E+00 9.63086315E-02-7.90361848E-05    3
 3.37293640E-08-5.86581277E-12 6.40361986E+03 5.07485305E+01                   4
!
BBDH12     2/21/13 THERMC  10H  14O   4    0G   300.000  5000.000 1394.000    81
 3.85505816E+01 3.41961908E-02-1.19615845E-05 1.88541181E-09-1.10555014E-13    2
-4.34081228E+04-1.70125247E+02-4.44079456E+00 1.44749621E-01-1.23241157E-04    3
 5.36098820E-08-9.37733651E-12-2.94872046E+04 5.71824275E+01                   4
BBDH12R    2/21/13 THERMC  10H  13O   4    0G   300.000  5000.000 1394.000    71
 3.61027915E+01 3.40077547E-02-1.18624314E-05 1.86619563E-09-1.09279047E-13    2
-2.54960378E+04-1.55903949E+02-3.49701990E+00 1.36010314E-01-1.15199287E-04    3
 5.03824666E-08-8.90327014E-12-1.26357910E+04 5.35021839E+01                   4
BBDH14     2/21/13 THERMC  10H  14O   4    0G   300.000  5000.000 1392.000    81
 3.82119668E+01 3.45675359E-02-1.21087074E-05 1.91039737E-09-1.12092822E-13    2
-4.16155477E+04-1.67619198E+02-3.59598518E+00 1.39706956E-01-1.15413959E-04    3
 4.88405263E-08-8.35734512E-12-2.78338443E+04 5.42844196E+01                   4
BBDH14R    2/21/13 THERMC  10H  14O   4    0G   300.000  5000.000 1401.000    71
 3.27099760E+01 3.80904015E-02-1.29667781E-05 2.00644744E-09-1.16130582E-13    2
-2.22183264E+04-1.35577415E+02-2.25889265E+00 1.30180388E-01-1.08410677E-04    3
 4.77034624E-08-8.51924644E-12-1.10593617E+04 4.86268822E+01                   4
BBDH34     2/21/13 THERMC  10H  14O   4    0G   300.000  5000.000 1398.000    81
 3.73979132E+01 3.46564071E-02-1.20037295E-05 1.87970238E-09-1.09720883E-13    2
-4.19216302E+04-1.62507233E+02-1.44221091E+00 1.31400374E-01-1.05350030E-04    3
 4.32248886E-08-7.16185758E-12-2.90960925E+04 4.38530934E+01                   4
BBDH34R    2/21/13 THERMC  10H  14O   4    0G   300.000  5000.000 1407.000    81
 3.27637540E+01 3.69832044E-02-1.24477722E-05 1.91145244E-09-1.10042645E-13    2
-2.28860999E+04-1.35410791E+02-8.01473363E-01 1.24858677E-01-1.02132064E-04    3
 4.39109182E-08-7.64141685E-12-1.22166696E+04 4.14259331E+01                   4
BBDH23     2/21/13 THERMC  10H  14O   4    0G   300.000  5000.000 1400.000    81
 3.77571054E+01 3.42541813E-02-1.18433043E-05 1.85238904E-09-1.08038129E-13    2
-4.37244510E+04-1.65134487E+02-2.32654225E+00 1.36564255E-01-1.13296769E-04    3
 4.80380740E-08-8.18666769E-12-3.07420851E+04 4.69450764E+01                   4
BBDH23R    2/21/13 THERMC  10H  13O   4    0G   300.000  5000.000 1399.000    71
 3.53134294E+01 3.40723317E-02-1.17486465E-05 1.83410555E-09-1.06825799E-13    2
-2.58170871E+04-1.50944081E+02-1.37700840E+00 1.27795763E-01-1.05200438E-04    3
 4.47788240E-08-7.70670237E-12-1.38915124E+04 4.32385702E+01                   4
!
!
!
!
BBDH12     2/21/13 THERMC  10H  14O   4    0G   300.000  5000.000 1394.000    81
 3.85505816E+01 3.41961908E-02-1.19615845E-05 1.88541181E-09-1.10555014E-13    2
-4.34081228E+04-1.70125247E+02-4.44079456E+00 1.44749621E-01-1.23241157E-04    3
 5.36098820E-08-9.37733651E-12-2.94872046E+04 5.71824275E+01                   4
BBZQDQJC   2/21/13 THERMC  10H  13O   4    0G   300.000  5000.000 1394.000    71
 3.61027915E+01 3.40077547E-02-1.18624314E-05 1.86619563E-09-1.09279047E-13    2
-2.54960378E+04-1.55903949E+02-3.49701990E+00 1.36010314E-01-1.15199287E-04    3
 5.03824666E-08-8.90327014E-12-1.26357910E+04 5.35021839E+01                   4
BBZQDQJB   2/21/13 THERMC  10H  13O   4    0G   300.000  5000.000 1394.000    71
 3.61027915E+01 3.40077547E-02-1.18624314E-05 1.86619563E-09-1.09279047E-13    2
-2.54960378E+04-1.55903949E+02-3.49701990E+00 1.36010314E-01-1.15199287E-04    3
 5.03824666E-08-8.90327014E-12-1.26357910E+04 5.35021839E+01                   4
BBZQCQJD   2/21/13 THERMC  10H  13O   4    0G   300.000  5000.000 1394.000    71
 3.61027915E+01 3.40077547E-02-1.18624314E-05 1.86619563E-09-1.09279047E-13    2
-2.54960378E+04-1.55903949E+02-3.49701990E+00 1.36010314E-01-1.15199287E-04    3
 5.03824666E-08-8.90327014E-12-1.26357910E+04 5.35021839E+01                   4
BBZQBQJD   2/21/13 THERMC  10H  13O   4    0G   300.000  5000.000 1394.000    71
 3.61027915E+01 3.40077547E-02-1.18624314E-05 1.86619563E-09-1.09279047E-13    2
-2.54960378E+04-1.55903949E+02-3.49701990E+00 1.36010314E-01-1.15199287E-04    3
 5.03824666E-08-8.90327014E-12-1.26357910E+04 5.35021839E+01                   4
BBDH14     2/21/13 THERMC  10H  13O   4    0G   300.000  5000.000 1392.000    81
 3.82119668E+01 3.45675359E-02-1.21087074E-05 1.91039737E-09-1.12092822E-13    2
-4.16155477E+04-1.67619198E+02-3.59598518E+00 1.39706956E-01-1.15413959E-04    3
 4.88405263E-08-8.35734512E-12-2.78338443E+04 5.42844196E+01                   4
BBZQDQJA   2/21/13 THERMC  10H  13O   4    0G   300.000  5000.000 1401.000    71
 3.27099760E+01 3.80904015E-02-1.29667781E-05 2.00644744E-09-1.16130582E-13    2
-2.22183264E+04-1.35577415E+02-2.25889265E+00 1.30180388E-01-1.08410677E-04    3
 4.77034624E-08-8.51924644E-12-1.10593617E+04 4.86268822E+01                   4
BBZQAQJD   2/21/13 THERMC  10H  13O   4    0G   300.000  5000.000 1401.000    71
 3.27099760E+01 3.80904015E-02-1.29667781E-05 2.00644744E-09-1.16130582E-13    2
-2.22183264E+04-1.35577415E+02-2.25889265E+00 1.30180388E-01-1.08410677E-04    3
 4.77034624E-08-8.51924644E-12-1.10593617E+04 4.86268822E+01                   4
BBDH34     2/21/13 THERMC  10H  14O   4    0G   300.000  5000.000 1398.000    81
 3.73979132E+01 3.46564071E-02-1.20037295E-05 1.87970238E-09-1.09720883E-13    2
-4.19216302E+04-1.62507233E+02-1.44221091E+00 1.31400374E-01-1.05350030E-04    3
 4.32248886E-08-7.16185758E-12-2.90960925E+04 4.38530934E+01                   4
BBZQAQJB   2/21/13 THERMC  10H  13O   4    0G   300.000  5000.000 1407.000    81
 3.27637540E+01 3.69832044E-02-1.24477722E-05 1.91145244E-09-1.10042645E-13    2
-2.28860999E+04-1.35410791E+02-8.01473363E-01 1.24858677E-01-1.02132064E-04    3
 4.39109182E-08-7.64141685E-12-1.22166696E+04 4.14259331E+01                   4
BBZQBQJA   2/21/13 THERMC  10H  13O   4    0G   300.000  5000.000 1407.000    81
 3.27637540E+01 3.69832044E-02-1.24477722E-05 1.91145244E-09-1.10042645E-13    2
-2.28860999E+04-1.35410791E+02-8.01473363E-01 1.24858677E-01-1.02132064E-04    3
 4.39109182E-08-7.64141685E-12-1.22166696E+04 4.14259331E+01                   4
BBZQAQJC   2/21/13 THERMC  10H  13O   4    0G   300.000  5000.000 1407.000    81
 3.27637540E+01 3.69832044E-02-1.24477722E-05 1.91145244E-09-1.10042645E-13    2
-2.28860999E+04-1.35410791E+02-8.01473363E-01 1.24858677E-01-1.02132064E-04    3
 4.39109182E-08-7.64141685E-12-1.22166696E+04 4.14259331E+01                   4
BBZQCQJA   2/21/13 THERMC  10H  13O   4    0G   300.000  5000.000 1407.000    81
 3.27637540E+01 3.69832044E-02-1.24477722E-05 1.91145244E-09-1.10042645E-13    2
-2.28860999E+04-1.35410791E+02-8.01473363E-01 1.24858677E-01-1.02132064E-04    3
 4.39109182E-08-7.64141685E-12-1.22166696E+04 4.14259331E+01                   4
BBDH23     2/21/13 THERMC  10H  14O   4    0G   300.000  5000.000 1400.000    81
 3.77571054E+01 3.42541813E-02-1.18433043E-05 1.85238904E-09-1.08038129E-13    2
-4.37244510E+04-1.65134487E+02-2.32654225E+00 1.36564255E-01-1.13296769E-04    3
 4.80380740E-08-8.18666769E-12-3.07420851E+04 4.69450764E+01                   4
BBZQCQJB   2/21/13 THERMC  10H  13O   4    0G   300.000  5000.000 1399.000    71
 3.53134294E+01 3.40723317E-02-1.17486465E-05 1.83410555E-09-1.06825799E-13    2
-2.58170871E+04-1.50944081E+02-1.37700840E+00 1.27795763E-01-1.05200438E-04    3
 4.47788240E-08-7.70670237E-12-1.38915124E+04 4.32385702E+01                   4
BBZQBQJC   2/21/13 THERMC  10H  13O   4    0G   300.000  5000.000 1399.000    71
 3.53134294E+01 3.40723317E-02-1.17486465E-05 1.83410555E-09-1.06825799E-13    2
-2.58170871E+04-1.50944081E+02-1.37700840E+00 1.27795763E-01-1.05200438E-04    3
 4.47788240E-08-7.70670237E-12-1.38915124E+04 4.32385702E+01                   4
!
!
!
!
!
BBZOOH1    2/21/13 THERMC  10H  14O   2    0G   300.000  5000.000 1392.000    61
 3.27472154E+01 3.48071628E-02-1.21549070E-05 1.91364021E-09-1.12115639E-13    2
-2.90358825E+04-1.45090327E+02-6.14874040E+00 1.32282089E-01-1.07905808E-04    3
 4.55411998E-08-7.81742762E-12-1.61384788E+04 6.15473488E+01                   4
BBZOO1     2/21/13 THERMC  10H  13O   2    0G   300.000  5000.000 1384.000    61
 3.29433924E+01 3.24682623E-02-1.24870478E-05 2.07708155E-09-1.25876772E-13    2
-1.26391156E+04-1.46881012E+02-3.28758026E+00 1.13009541E-01-8.07422394E-05    3
 2.85337544E-08-4.11461923E-12 4.66204317E+02 4.93485667E+01                   4
BBZOOH1-2  2/21/13      C  10H  13O   2    0G   300.000  5000.000 1378.000    61
 3.50019111E+01 2.87252676E-02-1.02736005E-05 1.64342241E-09-9.73577978E-14    2
-6.67463944E+03-1.55090999E+02-4.16103787E+00 1.18012012E-01-8.70718641E-05    3
 3.13566089E-08-4.47720363E-12 7.07215874E+03 5.59040844E+01                   4
BBZOOH1-4  2/21/13      C  10H  13O   2    0G   300.000  5000.000 1386.000    61
 3.93762569E+01 2.25455378E-02-8.16428066E-06 1.31681682E-09-7.84576081E-14    2
-6.62647344E+03-1.78777565E+02-5.83750920E+00 1.31086773E-01-1.06311159E-04    3
 4.09901183E-08-6.12537343E-12 8.47625294E+03 6.25071188E+01                   4
BBZOOH2    2/21/13 THERMC  10H  14O   2    0G   300.000  5000.000 1396.000    61
 3.17834196E+01 3.51527814E-02-1.21681495E-05 1.90456592E-09-1.11133246E-13    2
-2.93863555E+04-1.39216316E+02-3.99764785E+00 1.21645868E-01-9.28449787E-05    3
 3.64215036E-08-5.81009533E-12-1.72836609E+04 5.18646459E+01                   4
BBZOOH2-1  2/21/13 THERMC  10H  13O   2    0G   300.000  5000.000 1393.000    61
 3.24461397E+01 3.23001850E-02-1.12422304E-05 1.76615872E-09-1.03324222E-13    2
-1.20253210E+04-1.43752893E+02-1.91152707E+00 1.14563903E-01-8.70814451E-05    3
 3.38034613E-08-5.32782390E-12-3.24309622E+02 4.00092596E+01                   4
BBZOOH2-3  2/21/13 THERMC  10H  13O   2    0G   300.000  5000.000 1392.000    61
 3.15907994E+01 3.19126011E-02-1.08769101E-05 1.68615455E-09-9.77710911E-14    2
-5.77960555E+03-1.34844191E+02-3.34238809E+00 1.14287503E-01-8.41507689E-05    3
 3.08820530E-08-4.49258656E-12 6.10816487E+03 5.22195676E+01                   4
BBZOOH2-4  2/21/13      C  10H  13O   2    0G   300.000  5000.000 1396.000    61
 3.13658330E+01 3.30084390E-02-1.14392043E-05 1.79189327E-09-1.04617323E-13    2
-4.32228533E+03-1.33429077E+02-3.26166239E+00 1.17215948E-01-9.05288848E-05    3
 3.58767309E-08-5.77209934E-12 7.33468909E+03 5.13045425E+01                   4
BBZOOH4    2/21/13 THERMC  10H  14O   2    0G   300.000  5000.000 1394.000    61
 3.14333631E+01 3.55486233E-02-1.23267680E-05 1.93164549E-09-1.12804559E-13    2
-2.75885262E+04-1.35954892E+02-3.12691998E+00 1.16545867E-01-8.49868813E-05    3
 3.16618782E-08-4.79721084E-12-1.56357688E+04 4.95240958E+01                   4
BBZOOH4-1  2/21/13 THERMC  10H  13O   2    0G   300.000  5000.000 1390.000    61
 3.20992779E+01 3.26909419E-02-1.13986543E-05 1.79285634E-09-1.04971900E-13    2
-1.02286452E+04-1.40509019E+02-1.02735642E+00 1.09403500E-01-7.91296498E-05    3
 2.89834038E-08-4.30121866E-12 1.32154441E+03 3.76064691E+01                   4
BBZOOH4-2  2/21/13 THERMC  10H  13O   2    0G   300.000  5000.000 1403.000    61
 2.93863915E+01 3.42926490E-02-1.12686664E-05 1.70423736E-09-9.71300419E-14    2
-2.98333233E+03-1.20570493E+02-2.91760286E+00 1.11777644E-01-8.11444186E-05    3
 2.97737719E-08-4.32521629E-12 7.80993959E+03 5.18326248E+01                   4
BBZOO4     2/21/13 THERMC  10H  13O   2    0G   300.000  5000.000 1392.000    51
 2.90162301E+01 3.52898469E-02-1.21938858E-05 1.90620549E-09-1.11128246E-13    2
-9.68367141E+03-1.21895498E+02-2.28279674E+00 1.08214505E-01-7.75111304E-05    3
 2.87453483E-08-4.38354548E-12 1.23163982E+03 4.63125321E+01                   4
!
!!!!!!  C6H5C4H8QJD 
!
C6H5C4H8QJD  21/13 THERMC  10H  13O   2    0G   300.000  5000.000 1384.000    61
 3.29433924E+01 3.24682623E-02-1.24870478E-05 2.07708155E-09-1.25876772E-13    2
-1.26391156E+04-1.46881012E+02-3.28758026E+00 1.13009541E-01-8.07422394E-05    3
 2.85337544E-08-4.11461923E-12 4.66204317E+02 4.93485667E+01                   4
BBZQDRC    2/21/13      C  10H  13O   2    0G   300.000  5000.000 1378.000    61
 3.50019111E+01 2.87252676E-02-1.02736005E-05 1.64342241E-09-9.73577978E-14    2
-6.67463944E+03-1.55090999E+02-4.16103787E+00 1.18012012E-01-8.70718641E-05    3
 3.13566089E-08-4.47720363E-12 7.07215874E+03 5.59040844E+01                   4
BBZQDRB    2/21/13      C  10H  13O   2    0G   300.000  5000.000 1378.000    61
 3.50019111E+01 2.87252676E-02-1.02736005E-05 1.64342241E-09-9.73577978E-14    2
-6.67463944E+03-1.55090999E+02-4.16103787E+00 1.18012012E-01-8.70718641E-05    3
 3.13566089E-08-4.47720363E-12 7.07215874E+03 5.59040844E+01                   4
BBZQDRA    2/21/13      C  10H  13O   2    0G   300.000  5000.000 1386.000    61
 3.93762569E+01 2.25455378E-02-8.16428066E-06 1.31681682E-09-7.84576081E-14    2
-6.62647344E+03-1.78777565E+02-5.83750920E+00 1.31086773E-01-1.06311159E-04    3
 4.09901183E-08-6.12537343E-12 8.47625294E+03 6.25071188E+01                   4
BBZQCRD    2/21/13 THERMC  10H  13O   2    0G   300.000  5000.000 1393.000    61
 3.24461397E+01 3.23001850E-02-1.12422304E-05 1.76615872E-09-1.03324222E-13    2
-1.20253210E+04-1.43752893E+02-1.91152707E+00 1.14563903E-01-8.70814451E-05    3
 3.38034613E-08-5.32782390E-12-3.24309622E+02 4.00092596E+01                   4
BBZQCRB    2/21/13 THERMC  10H  13O   2    0G   300.000  5000.000 1392.000    61
 3.15907994E+01 3.19126011E-02-1.08769101E-05 1.68615455E-09-9.77710911E-14    2
-5.77960555E+03-1.34844191E+02-3.34238809E+00 1.14287503E-01-8.41507689E-05    3
 3.08820530E-08-4.49258656E-12 6.10816487E+03 5.22195676E+01                   4
BBZQCRA    2/21/13      C  10H  13O   2    0G   300.000  5000.000 1396.000    61
 3.13658330E+01 3.30084390E-02-1.14392043E-05 1.79189327E-09-1.04617323E-13    2
-4.32228533E+03-1.33429077E+02-3.26166239E+00 1.17215948E-01-9.05288848E-05    3
 3.58767309E-08-5.77209934E-12 7.33468909E+03 5.13045425E+01                   4
BBZQBRD    2/21/13 THERMC  10H  13O   2    0G   300.000  5000.000 1393.000    61
 3.24461397E+01 3.23001850E-02-1.12422304E-05 1.76615872E-09-1.03324222E-13    2
-1.20253210E+04-1.43752893E+02-1.91152707E+00 1.14563903E-01-8.70814451E-05    3
 3.38034613E-08-5.32782390E-12-3.24309622E+02 4.00092596E+01                   4
BBZQBRC    2/21/13 THERMC  10H  13O   2    0G   300.000  5000.000 1392.000    61
 3.15907994E+01 3.19126011E-02-1.08769101E-05 1.68615455E-09-9.77710911E-14    2
-5.77960555E+03-1.34844191E+02-3.34238809E+00 1.14287503E-01-8.41507689E-05    3
 3.08820530E-08-4.49258656E-12 6.10816487E+03 5.22195676E+01                   4
BBZQBRA    2/21/13      C  10H  13O   2    0G   300.000  5000.000 1396.000    61
 3.13658330E+01 3.30084390E-02-1.14392043E-05 1.79189327E-09-1.04617323E-13    2
-4.32228533E+03-1.33429077E+02-3.26166239E+00 1.17215948E-01-9.05288848E-05    3
 3.58767309E-08-5.77209934E-12 7.33468909E+03 5.13045425E+01                   4
BBZQARD    2/21/13 THERMC  10H  13O   2    0G   300.000  5000.000 1390.000    61
 3.20992779E+01 3.26909419E-02-1.13986543E-05 1.79285634E-09-1.04971900E-13    2
-1.02286452E+04-1.40509019E+02-1.02735642E+00 1.09403500E-01-7.91296498E-05    3
 2.89834038E-08-4.30121866E-12 1.32154441E+03 3.76064691E+01                   4
BBZQARC    2/21/13 THERMC  10H  13O   2    0G   300.000  5000.000 1403.000    61
 2.93863915E+01 3.42926490E-02-1.12686664E-05 1.70423736E-09-9.71300419E-14    2
-2.98333233E+03-1.20570493E+02-2.91760286E+00 1.11777644E-01-8.11444186E-05    3
 2.97737719E-08-4.32521629E-12 7.80993959E+03 5.18326248E+01                   4
BBZQARB    2/21/13 THERMC  10H  13O   2    0G   300.000  5000.000 1403.000    61
 2.93863915E+01 3.42926490E-02-1.12686664E-05 1.70423736E-09-9.71300419E-14    2
-2.98333233E+03-1.20570493E+02-2.91760286E+00 1.11777644E-01-8.11444186E-05    3
 2.97737719E-08-4.32521629E-12 7.80993959E+03 5.18326248E+01                   4
C6H5C4H8QJA  21/13 THERMC  10H  13O   2    0G   300.000  5000.000 1392.000    51
 2.90162301E+01 3.52898469E-02-1.21938858E-05 1.90620549E-09-1.11128246E-13    2
-9.68367141E+03-1.21895498E+02-2.28279674E+00 1.08214505E-01-7.75111304E-05    3
 2.87453483E-08-4.38354548E-12 1.23163982E+03 4.63125321E+01                   4
!!
!!
!!
C6H5C4H8QB  21/13  THERMC  10H  13O   2    0G   300.000  5000.000 1392.000    51
 2.90162301E+01 3.52898469E-02-1.21938858E-05 1.90620549E-09-1.11128246E-13    2
-9.68367141E+03-1.21895498E+02-2.28279674E+00 1.08214505E-01-7.75111304E-05    3
 2.87453483E-08-4.38354548E-12 1.23163982E+03 4.63125321E+01                   4
C6H5C4H8QJC  21/13 THERMC  10H  13O   2    0G   300.000  5000.000 1392.000    51
 2.90162301E+01 3.52898469E-02-1.21938858E-05 1.90620549E-09-1.11128246E-13    2
-9.68367141E+03-1.21895498E+02-2.28279674E+00 1.08214505E-01-7.75111304E-05    3
 2.87453483E-08-4.38354548E-12 1.23163982E+03 4.63125321E+01                   4
!
!
H                 L 6/94H   1    0    0    0G   200.000  6000.00  1000.00      1
 0.25000000E+01 0.00000000E+00 0.00000000E+00 0.00000000E+00 0.00000000E+00    2
 0.25473660E+05-0.44668285E+00 0.25000000E+01 0.00000000E+00 0.00000000E+00    3
 0.00000000E+00 0.00000000E+00 0.25473660E+05-0.44668285E+00 0.26219035E+05    4
H2                TPIS78H   2    0    0    0G   200.000  6000.00  1000.00      1
 2.93286575E+00 8.26608026E-04-1.46402364E-07 1.54100414E-11-6.88804800E-16    2
-8.13065581E+02-1.02432865E+00 2.34433112E+00 7.98052075E-03-1.94781510E-05    3
 2.01572094E-08-7.37611761E-12-9.17935173E+02 6.83010238E-01 0.00000000E+00    4
O                 L 1/90O   1    0    0    0G   200.000  6000.00  1000.00      1
 2.54363697E+00-2.73162486E-05-4.19029520E-09 4.95481845E-12-4.79553694E-16    2
 2.92260120E+04 4.92229457E+00 3.16826710E+00-3.27931884E-03 6.64306396E-06    3
-6.12806624E-09 2.11265971E-12 2.91222592E+04 2.05193346E+00 2.99687009E+04    4
O2                RUS 89O   2    0    0    0G   200.000  6000.00  1000.00      1
 3.66096065E+00 6.56365811E-04-1.41149627E-07 2.05797935E-11-1.29913436E-15    2
-1.21597718E+03 3.41536279E+00 3.78245636E+00-2.99673416E-03 9.84730201E-06    3
-9.68129509E-09 3.24372837E-12-1.06394356E+03 3.65767573E+00 0.00000000E+00    4
OH                IU3/03O   1 H  1    0    0G   200.000  6000.00  1000.00      1
 2.83853033E+00 1.10741289E-03-2.94000209E-07 4.20698729E-11-2.42289890E-15    2
 3.69780808E+03 5.84494652E+00 3.99198424E+00-2.40106655E-03 4.61664033E-06    3
-3.87916306E-09 1.36319502E-12 3.36889836E+03-1.03998477E-01 4.48613328E+03    4
OH*               121286O   1H   1          G  0300.00   5000.00  1000.00      1
 0.02882730E+02 0.10139743E-02-0.02276877E-05 0.02174683E-09-0.05126305E-14    2
 5.02650000E+04 0.05595712E+02 0.03637266E+02 0.01850910E-02-0.16761646E-05    3
 0.02387202E-07-0.08431442E-11 5.00213000E+04 0.13588605E+01                   4
H2O               L 5/89H   2 O  1    0    0G   200.000  6000.00  1000.00      1
 0.26770389E+01 0.29731816E-02-0.77376889E-06 0.94433514E-10-0.42689991E-14    2
-0.29885894E+05 0.68825500E+01 0.41986352E+01-0.20364017E-02 0.65203416E-05    3
-0.54879269E-08 0.17719680E-11-0.30293726E+05-0.84900901E+00-0.29084817E+05    4
N2                G 8/02N   2    0    0    0G   200.000  6000.00  1000.00      1
 2.95257637E+00 1.39690040E-03-4.92631603E-07 7.86010195E-11-4.60755204E-15    2
-9.23948688E+02 5.87188762E+00 3.53100528E+00-1.23660988E-04-5.02999433E-07    3
 2.43530612E-09-1.40881235E-12-1.04697628E+03 2.96747038E+00 0.00000000E+00    4
HO2               T 1/09H   1O   2    0    0G   200.000  5000.00  1000.00      1
 4.17228741E+00 1.88117627E-03-3.46277286E-07 1.94657549E-11 1.76256905E-16    2
 3.10206839E+01 2.95767672E+00 4.30179807E+00-4.74912097E-03 2.11582905E-05    3
-2.42763914E-08 9.29225225E-12 2.64018485E+02 3.71666220E+00 1.47886045E+03    4
H2O2              T 8/03H   2O   2    0    0G   200.000  6000.00  1000.00      1
 4.57977305E+00 4.05326003E-03-1.29844730E-06 1.98211400E-10-1.13968792E-14    2
-1.80071775E+04 6.64970694E-01 4.31515149E+00-8.47390622E-04 1.76404323E-05    3
-2.26762944E-08 9.08950158E-12-1.77067437E+04 3.27373319E+00-1.63425145E+04    4
AR                G 5/97AR  1  0    0      0G   200.000  6000.00  1000.00      1
 2.50000000E+00 0.00000000E+00 0.00000000E+00 0.00000000E+00 0.00000000E+00    2
-7.45375000E+02 4.37967491E+00 2.50000000E+00 0.00000000E+00 0.00000000E+00    3
 0.00000000E+00 0.00000000E+00-7.45375000E+02 4.37967491E+00 0.00000000E+00    4
CH2O              T 5/11H   2C   1O   1    0G   200.000  6000.00  1000.00      1
 3.16952665E+00 6.19320560E-03-2.25056366E-06 3.65975660E-10-2.20149458E-14    2
-1.45486831E+04 6.04207898E+00 4.79372312E+00-9.90833322E-03 3.73219990E-05    3
-3.79285237E-08 1.31772641E-11-1.43791953E+04 6.02798058E-01-1.31293365E+04    4
CO                RUS 79C   1O   1    0    0G   200.000  6000.00  1000.00      1
 0.30484859E+01 0.13517281E-02-0.48579405E-06 0.78853644E-10-0.46980746E-14    2
-0.14266117E+05 0.60170977E+01 0.35795335E+01-0.61035369E-03 0.10168143E-05    3
 0.90700586E-09-0.90442449E-12-0.14344086E+05 0.35084093E+01-0.13293628E+05    4
CO2               L 7/88C   1O   2    0    0G   200.000  6000.00  1000.00      1
 0.46365111E+01 0.27414569E-02-0.99589759E-06 0.16038666E-09-0.91619857E-14    2
-0.49024904E+05-0.19348955E+01 0.23568130E+01 0.89841299E-02-0.71220632E-05    3
 0.24573008E-08-0.14288548E-12-0.48371971E+05 0.99009035E+01-0.47328105E+05    4
HCO               T 5/03C  1 H  1 O  1    0 G   200.000  6000.00  1000.00      1
 3.92001542E+00 2.52279324E-03-6.71004164E-07 1.05615948E-10-7.43798261E-15    2
 3.65342928E+03 3.58077056E+00 4.23754610E+00-3.32075257E-03 1.40030264E-05    3
-1.34239995E-08 4.37416208E-12 3.87241185E+03 3.30834869E+00 5.08749163E+03    4
HO2CHO     6/26/95 THERMC   1H   2O   3    0G   300.000  5000.000 1378.00     21
 9.87503878E+00 4.64663708E-03-1.67230522E-06 2.68624413E-10-1.59595232E-14    2
-3.80502496E+04-2.24939155E+01 2.42464726E+00 2.19706380E-02-1.68705546E-05    3
 6.25612194E-09-9.11645843E-13-3.54828006E+04 1.75027796E+01                   4
O2CHO      6/26/95 THERMC   1H   1O   3    0G   300.000  5000.000 1368.00     11
 7.24075139E+00 4.63312951E-03-1.63693995E-06 2.59706693E-10-1.52964699E-14    2
-1.87027618E+04-6.49547212E+00 3.96059309E+00 1.06002279E-02-5.25713351E-06    3
 1.01716726E-09-2.87487602E-14-1.73599383E+04 1.17807483E+01                   4
HOCHO             L 8/88H   2C   1O   2    0G   200.000  6000.00  1000.00      1
 0.46138316E+01 0.64496364E-02-0.22908251E-05 0.36716047E-09-0.21873675E-13    2
-0.47514850E+05 0.84788383E+00 0.38983616E+01-0.35587795E-02 0.35520538E-04    3
-0.43849959E-07 0.17107769E-10-0.46770609E+05 0.73495397E+01-0.45531246E+05    4
HOCO              T05/06H  1 C  1 O  2    0 G   200.000  6000.00   1000.00     1
 5.39206152E+00 4.11221455E-03-1.48194900E-06 2.39875460E-10-1.43903104E-14    2
-2.38606717E+04-2.23529091E+00 2.92207919E+00 7.62453859E-03 3.29884437E-06    3
-1.07135205E-08 5.11587057E-12-2.30281524E+04 1.12925886E+01-2.18076591E+04    4
OCHO              ATCT/AC  1 O  2 H  1    0 G   200.000  6000.000 1000.00      1
 4.14394211E+00 5.59738818E-03-1.99794019E-06 3.16179193E-10-1.85614483E-14    2
-1.72459887E+04 5.07778617E+00 4.68825921E+00-4.14871834E-03 2.55066010E-05    3
-2.84473900E-08 1.04422559E-11-1.69867041E+04 4.28426480E+00-1.55992356E+04    4
HOCH2O2H   4/ 9/98 THERMC   1H   4O   3    0G   300.000  5000.000 1422.000    31
 1.16303827E+01 7.15133688E-03-2.39035030E-06 3.65772791E-10-2.10199524E-14    2
-4.31079242E+04-3.24276725E+01 1.85716693E+00 3.23153132E-02-2.69928902E-05    3
 1.11694484E-08-1.81284103E-12-4.00314471E+04 1.90917729E+01                   4
HOCH2O2    4/ 9/98 THERMC   1H   3O   3    0G   300.000  5000.000 1412.000    21
 9.04545938E+00 7.15223373E-03-2.37005676E-06 3.60083481E-10-2.05750228E-14    2
-2.49414886E+04-1.74210530E+01 2.85441621E+00 2.33663535E-02-1.88115990E-05    3
 7.96709515E-09-1.36346618E-12-2.29866196E+04 1.51730565E+01                   4
OCH2O2H    4/ 9/98 THERMC   1H   3O   3    0G   300.000  5000.000 1420.000    21
 1.15398246E+01 5.34291432E-03-1.81878917E-06 2.81968625E-10-1.63584348E-14    2
-1.68237489E+04-3.20700633E+01 1.93823075E+00 3.01465730E-02-2.61053152E-05    3
 1.09463562E-08-1.78312692E-12-1.38166625E+04 1.85042002E+01                   4
HOCH2O     2/16/99 THERMC   1H   3O   2    0G   300.000  5000.000 1452.000    11
 6.39521515E+00 7.43673043E-03-2.50422354E-06 3.84879712E-10-2.21778689E-14    2
-2.41108840E+04-6.63865583E+00 4.11183145E+00 7.53850697E-03 3.77337370E-06    3
-5.38746005E-09 1.45615887E-12-2.28023001E+04 7.46807254E+00                   4
CH3OH             T06/02C   1H  4 O  1    0 G   200.000  6000.00  1000.00      1
 3.52726795E+00 1.03178783E-02-3.62892944E-06 5.77448016E-10-3.42182632E-14    2
-2.60028834E+04 5.16758693E+00 5.65851051E+00-1.62983419E-02 6.91938156E-05    3
-7.58372926E-08 2.80427550E-11-2.56119736E+04-8.97330508E-01-2.41746056E+04    4
CH2OH             IU2/03C  1 H  3 O  1    0 G   200.000  6000.00   1000.00     1
 5.09314370E+00 5.94761260E-03-2.06497460E-06 3.23008173E-10-1.88125902E-14    2
-4.03409640E+03-1.84691493E+00 4.47834367E+00-1.35070310E-03 2.78484980E-05    3
-3.64869060E-08 1.47907450E-11-3.50072890E+03 3.30913500E+00-2.04462770E+03    4
CH3O              IU1/03C  1 H  3 O  1    0 G   200.000  6000.00  1000.00      1
 4.75779238E+00 7.44142474E-03-2.69705176E-06 4.38090504E-10-2.63537098E-14    2
 3.78111940E+02-1.96680028E+00 3.71180502E+00-2.80463306E-03 3.76550971E-05    3
-4.73072089E-08 1.86588420E-11 1.29569760E+03 6.57240864E+00 2.52571660E+03    4
CH3O2H            A 7/05C  1 H  4 O  2    0 G   200.000  6000.00  1000.00      1
 7.76538058E+00 8.61499712E-03-2.98006935E-06 4.68638071E-10-2.75339255E-14    2
-1.82979984E+04-1.43992663E+01 2.90540897E+00 1.74994735E-02 5.28243630E-06    3
-2.52827275E-08 1.34368212E-11-1.68894632E+04 1.13741987E+01-1.52423685E+04    4
CH3O2                   H   3C   1O   2    0G    300.00   5000.00 1000.00      1
 4.80390863E+00 9.95844638E-03-3.85301026E-06 6.84740497E-10-4.58402955E-14    2
-7.47135460E+02 1.45281400E+00 3.62497097E+00 3.59397933E-03 2.26538097E-05    3
-2.95391947E-08 1.11977570E-11 7.93040410E+01 9.96382194E+00                   4
CH2O2H     1/14/ 5 THERMC   1H   3O   2    0G   300.000  5000.000 1357.000    21
 9.10784249E+00 5.27260434E-03-1.88170543E-06 3.00561364E-10-1.77865959E-14    2
 3.77440183E+03-2.11741044E+01 4.47228333E+00 1.33401095E-02-5.92919725E-06    3
 4.44481025E-10 2.12699899E-13 5.67413711E+03 4.72608208E+00                   4
CH4               G 8/99C  1 H  4    0    0 G   200.000  6000.00  1000.00      1
 1.65326226E+00 1.00263099E-02-3.31661238E-06 5.36483138E-10-3.14696758E-14    2
-1.00095936E+04 9.90506283E+00 5.14911468E+00-1.36622009E-02 4.91453921E-05    3
-4.84246767E-08 1.66603441E-11-1.02465983E+04-4.63848842E+00-8.97226656E+03    4
CH3               IU0702C  1 H  3    0    0 G   200.000  6000.00  1000.00      1
 0.29781206E+01 0.57978520E-02-0.19755800E-05 0.30729790E-09-0.17917416E-13    2
 0.16509513E+05 0.47224799E+01 0.36571797E+01 0.21265979E-02 0.54583883E-05    3
-0.66181003E-08 0.24657074E-11 0.16422716E+05 0.16735354E+01 0.17643935E+05    4
CH2               IU3/03C  1 H  2    0    0 G   200.000  6000.00  1000.00      1
 3.14631886E+00 3.03671259E-03-9.96474439E-07 1.50483580E-10-8.57335515E-15    2
 4.60412605E+04 4.72341711E+00 3.71757846E+00 1.27391260E-03 2.17347251E-06    3
-3.48858500E-09 1.65208866E-12 4.58723866E+04 1.75297945E+00 4.70504920E+04    4
CH2(S)            IU6/03C  1 H  2    0    0 G   200.000  6000.00  1000.00      1
 3.13501686E+00 2.89593926E-03-8.16668090E-07 1.13572697E-10-6.36262835E-15    2
 5.05040504E+04 4.06030621E+00 4.19331325E+00-2.33105184E-03 8.15676451E-06    3
-6.62985981E-09 1.93233199E-12 5.03662246E+04-7.46734310E-01 5.15727280E+04    4
CH                IU3/03C  1 H  1    0    0 G   200.000  6000.00  1000.00      1
 0.25209369E+01 0.17653639E-02-0.46147660E-06 0.59289675E-10-0.33474501E-14    2
 0.70946769E+05 0.74051829E+01 0.34897583E+01 0.32432160E-03-0.16899751E-05    3
 0.31628420E-08-0.14061803E-11 0.70612646E+05 0.20842841E+01 0.71658188E+05    4
CH*               073003C   1H   1          G  0300.00   5000.00  1000.00      1
 0.02196223E+02 0.02340381E-01-0.07058201E-05 0.09007582E-09-0.03855040E-13    2
 0.10419559E+06 0.09178373E+02 0.03200202E+02 0.02072875E-01-0.05134431E-04    3
 0.05733890E-07-0.01955533E-10 0.10393714E+06 0.03331587E+02                   4
C                 L 7/88C   1     0    0   0G   200.000  6000.00  1000.00      1
 0.26055830E+01-0.19593434E-03 0.10673722E-06-0.16423940E-10 0.81870580E-15    2
 0.85411742E+05 0.41923868E+01 0.25542395E+01-0.32153772E-03 0.73379223E-06    3